
     RDKit          3D

 18 18  0  0  0  0  0  0  0  0999 V2000
   -9.6108   -6.6120   25.2577 O   0  0  0  0  0  0  0  0  0  0  0  0
  -11.7301   -7.3104   26.0520 C   0  0  0  0  0  0  0  0  0  0  0  0
   -9.0155   -9.4176   27.2797 C   0  0  0  0  0  0  0  0  0  0  0  0
   -8.3063   -9.5168   28.4806 O   0  0  0  0  0  0  0  0  0  0  0  0
   -9.6619   -8.0664   27.1246 C   0  0  0  0  0  0  0  0  0  0  0  0
  -10.2439   -8.8982   24.8330 C   0  0  0  0  0  0  0  0  0  0  0  0
   -8.9216  -10.7442   24.0533 O   0  0  0  0  0  0  0  0  0  0  0  0
   -4.5151   -8.7040   26.9347 C   0  0  0  0  0  0  0  0  0  0  0  0
   -9.6639   -7.2706   28.0535 O   0  0  0  0  0  0  0  0  0  0  0  0
  -12.4233   -6.8494   25.1584 O   0  0  0  0  0  0  0  0  0  0  0  0
   -8.8426   -9.5244   24.7251 C   0  0  0  0  0  0  0  0  0  0  0  0
  -10.2996   -7.6988   25.8055 C   0  0  0  0  0  0  0  0  0  0  0  0
   -4.7208   -7.5364   27.8816 C   0  0  0  0  0  0  0  0  0  0  0  0
   -3.3496   -9.5378   27.4226 C   0  0  0  0  0  0  0  0  0  0  0  0
   -5.7628   -9.5669   26.8876 C   0  0  0  0  0  0  0  0  0  0  0  0
  -10.6909   -8.5303   23.5607 O   0  0  0  0  0  0  0  0  0  0  0  0
   -8.1186   -9.7257   26.0674 C   0  0  0  0  0  0  0  0  0  0  0  0
   -6.8436   -8.8902   26.0619 C   0  0  0  0  0  0  0  0  0  0  0  0
  3  4  1  0
  5  9  2  0
  5  3  1  0
  6 16  1  0
  6 12  1  0
  8 14  1  0
  8 13  1  0
 10  2  2  0
 11  7  1  0
 11  6  1  0
 11 17  1  0
 12  1  1  0
 12  2  1  0
 12  5  1  0
 15  8  1  0
 17 18  1  0
 17  3  1  0
 18 15  1  0
M  END
$$$$

     RDKit          3D

 27 28  0  0  0  0  0  0  0  0999 V2000
  -13.5396   -4.0141   28.9647 C   0  0  0  0  0  0  0  0  0  0  0  0
  -10.1592   -8.6378   25.3911 C   0  0  0  0  0  0  0  0  0  0  0  0
  -11.2818   -3.7793   27.8751 C   0  0  0  0  0  0  0  0  0  0  0  0
  -11.7293  -10.3092   28.3349 O   0  0  0  0  0  0  0  0  0  0  0  0
  -11.4606   -8.2970   22.5655 C   0  0  0  0  0  0  0  0  0  0  0  0
  -12.7488   -3.3498   27.8393 C   0  0  0  0  0  0  0  0  0  0  0  0
  -13.4437   -5.5320   28.8530 C   0  0  0  0  0  0  0  0  0  0  0  0
  -10.6697   -3.3057   29.0226 F   0  0  0  0  0  0  0  0  0  0  0  0
  -13.7087   -8.2581   27.5611 O   0  0  0  0  0  0  0  0  0  0  0  0
  -11.6792   -7.5077   21.5146 C   0  0  0  0  0  0  0  0  0  0  0  0
   -9.2058  -11.1147   22.1040 C   0  0  0  0  0  0  0  0  0  0  0  0
  -10.0945   -8.7853   22.9250 C   0  0  0  0  0  0  0  0  0  0  0  0
  -10.1000   -9.3874   24.2147 O   0  0  0  0  0  0  0  0  0  0  0  0
  -10.2251   -9.3529   26.7032 C   0  0  0  0  0  0  0  0  0  0  0  0
   -9.2402   -9.1776   20.6492 C   0  0  0  0  0  0  0  0  0  0  0  0
  -12.3229   -8.0990   27.5335 C   0  0  0  0  0  0  0  0  0  0  0  0
  -11.1617   -5.3011   27.7996 C   0  0  0  0  0  0  0  0  0  0  0  0
  -10.6456   -7.0968   20.5436 C   0  0  0  0  0  0  0  0  0  0  0  0
   -9.6440  -11.7583   23.2549 O   0  0  0  0  0  0  0  0  0  0  0  0
   -9.5250   -9.6872   21.8550 C   0  0  0  0  0  0  0  0  0  0  0  0
  -11.9808   -5.9731   28.9052 C   0  0  0  0  0  0  0  0  0  0  0  0
   -9.2399   -8.7773   27.7115 C   0  0  0  0  0  0  0  0  0  0  0  0
  -11.8426   -7.4940   28.8551 C   0  0  0  0  0  0  0  0  0  0  0  0
  -11.6609   -9.4493   27.2350 C   0  0  0  0  0  0  0  0  0  0  0  0
   -9.5809   -7.8203   20.1731 C   0  0  0  0  0  0  0  0  0  0  0  0
  -10.1869   -7.3765   25.3495 O   0  0  0  0  0  0  0  0  0  0  0  0
   -8.5485  -11.7755   21.2550 O   0  0  0  0  0  0  0  0  0  0  0  0
  2 26  2  0
  2 14  1  0
  3  8  1  0
  3  6  1  0
  5 12  1  0
  6  1  1  0
  7  1  1  0
 10  5  2  0
 11 20  1  0
 11 19  1  0
 12 13  1  0
 13  2  1  0
 14 22  1  0
 15 20  2  0
 16  9  1  0
 16 24  1  0
 16 23  1  0
 17  3  1  0
 17 21  1  0
 18 10  1  0
 20 12  1  0
 21 23  1  0
 21  7  1  0
 24 14  1  0
 24  4  1  0
 25 15  1  0
 25 18  2  0
 27 11  2  0
M  END
$$$$

     RDKit          3D

 19 20  0  0  0  0  0  0  0  0999 V2000
  -13.3484   -6.6575   29.0260 N   0  0  0  0  0  0  0  0  0  0  0  0
  -12.4255   -9.6679   24.6476 O   0  0  0  0  0  0  0  0  0  0  0  0
  -10.0748   -9.9198   25.2666 C   0  0  0  0  0  0  0  0  0  0  0  0
   -9.7672  -11.7096   23.1255 C   0  0  0  0  0  0  0  0  0  0  0  0
  -10.1755   -9.0206   26.3812 N   0  0  0  0  0  0  0  0  0  0  0  0
   -9.2876   -7.0909   24.3025 C   0  0  0  0  0  0  0  0  0  0  0  0
   -8.0835   -7.3769   24.3098 O   0  0  0  0  0  0  0  0  0  0  0  0
  -11.0034  -11.1013   23.3535 C   0  0  0  0  0  0  0  0  0  0  0  0
  -11.7402   -7.8188   27.6976 C   0  0  0  0  0  0  0  0  0  0  0  0
   -8.8495  -10.5589   25.0443 C   0  0  0  0  0  0  0  0  0  0  0  0
  -11.1689  -10.2159   24.4232 C   0  0  0  0  0  0  0  0  0  0  0  0
   -8.6929  -11.4462   23.9769 C   0  0  0  0  0  0  0  0  0  0  0  0
  -12.7880   -6.8054   27.8731 C   0  0  0  0  0  0  0  0  0  0  0  0
  -12.4593   -6.1612   25.5048 C   0  0  0  0  0  0  0  0  0  0  0  0
  -13.4285   -6.2142   26.6538 C   0  0  0  0  0  0  0  0  0  0  0  0
  -10.5247   -6.7936   24.2933 N   0  0  0  0  0  0  0  0  0  0  0  0
  -11.4003   -6.9769   25.4146 C   0  0  0  0  0  0  0  0  0  0  0  0
  -11.1154   -7.9489   26.5236 C   0  0  0  0  0  0  0  0  0  0  0  0
   -9.6075  -12.6095   22.0361 N   0  0  0  0  0  0  0  0  0  0  0  0
  2 11  1  0
  3 10  2  0
  3  5  1  0
  4 12  2  0
  5 18  1  0
  6 16  2  0
  7  6  2  0
  8  4  1  0
  8 11  2  0
  9 13  1  0
 11  3  1  0
 12 10  1  0
 13  1  2  0
 14 15  1  0
 15 13  1  0
 16 17  1  0
 17 14  2  0
 17 18  1  0
 18  9  2  0
 19  4  1  0
M  END
$$$$

     RDKit          3D

 15 15  0  0  0  0  0  0  0  0999 V2000
  -10.4657   -7.6251   26.5383 C   0  0  0  0  0  0  0  0  0  0  0  0
   -9.4554   -7.7568   27.5745 N   0  0  0  0  0  0  0  0  0  0  0  0
   -9.8555   -9.6178   23.9273 C   0  0  0  0  0  0  0  0  0  0  0  0
   -7.7864   -9.1541   21.7805 C   0  0  0  0  0  0  0  0  0  0  0  0
  -11.8023   -7.2126   27.1651 C   0  0  0  0  0  0  0  0  0  0  0  0
  -10.6290   -6.9815   23.8618 S   0  0  0  0  0  0  0  0  0  0  0  0
   -9.2118  -10.7534   23.1204 C   0  0  0  0  0  0  0  0  0  0  0  0
  -13.7249   -9.6150   26.8537 O   0  0  0  0  0  0  0  0  0  0  0  0
   -8.9278   -8.1704   22.0732 C   0  0  0  0  0  0  0  0  0  0  0  0
  -12.7772   -7.0067   26.1856 O   0  0  0  0  0  0  0  0  0  0  0  0
   -9.9894   -6.5969   25.5223 C   0  0  0  0  0  0  0  0  0  0  0  0
  -12.5398   -9.6133   27.5895 C   0  0  0  0  0  0  0  0  0  0  0  0
  -12.2967   -8.2344   28.1926 C   0  0  0  0  0  0  0  0  0  0  0  0
   -9.3423   -8.2225   23.5406 C   0  0  0  0  0  0  0  0  0  0  0  0
   -7.7938  -10.3916   22.6886 C   0  0  0  0  0  0  0  0  0  0  0  0
  1  2  1  0
  4 15  1  0
  4  9  1  0
  5 10  1  0
  5  1  1  0
  5 13  1  0
  6 11  1  0
  7  3  1  0
  8 12  1  0
  9 14  1  0
 11  1  1  0
 13 12  1  0
 14  3  1  0
 14  6  1  0
 15  7  1  0
M  END
$$$$

     RDKit          3D

 25 26  0  0  0  0  0  0  0  0999 V2000
  -11.2656   -7.8048   24.6041 C   0  0  0  0  0  0  0  0  0  0  0  0
  -14.2396   -6.6291   30.5190 C   0  0  0  0  0  0  0  0  0  0  0  0
   -9.8230   -8.7900   26.3996 P   0  0  0  0  0  0  0  0  0  0  0  0
  -13.7392   -5.5465   29.5874 C   0  0  0  0  0  0  0  0  0  0  0  0
   -9.1108   -8.8725   24.8607 O   0  0  0  0  0  0  0  0  0  0  0  0
  -17.9336   -9.2221   23.9739 C   0  0  0  0  0  0  0  0  0  0  0  0
  -13.9372   -9.6335   21.9786 O   0  0  0  0  0  0  0  0  0  0  0  0
  -15.4872   -9.0917   23.7669 C   0  0  0  0  0  0  0  0  0  0  0  0
  -11.6311   -9.4170   22.2048 N   0  0  0  0  0  0  0  0  0  0  0  0
  -10.0812  -10.1810   26.9343 O   0  0  0  0  0  0  0  0  0  0  0  0
  -10.5807   -9.7518   23.1557 C   0  0  0  0  0  0  0  0  0  0  0  0
  -12.8088  -10.1677   22.6039 C   0  0  0  0  0  0  0  0  0  0  0  0
  -13.5040   -7.8267   26.9794 C   0  0  0  0  0  0  0  0  0  0  0  0
   -9.4384  -10.4015   22.4343 C   0  0  0  0  0  0  0  0  0  0  0  0
  -13.3741   -7.7248   28.4875 C   0  0  0  0  0  0  0  0  0  0  0  0
  -16.6082   -9.5246   24.6441 C   0  0  0  0  0  0  0  0  0  0  0  0
  -14.9742   -9.9852   22.7774 N   0  0  0  0  0  0  0  0  0  0  0  0
   -8.8396   -7.9203   27.4642 O   0  0  0  0  0  0  0  0  0  0  0  0
  -12.4853   -8.7233   26.4564 N   0  0  0  0  0  0  0  0  0  0  0  0
  -15.0157   -7.9296   23.8811 O   0  0  0  0  0  0  0  0  0  0  0  0
   -8.8365   -9.8095   21.5520 O   0  0  0  0  0  0  0  0  0  0  0  0
  -10.1131   -8.5084   23.9272 C   0  0  0  0  0  0  0  0  0  0  0  0
  -12.0697   -7.1380   23.9723 O   0  0  0  0  0  0  0  0  0  0  0  0
  -11.3401   -7.9090   26.0733 C   0  0  0  0  0  0  0  0  0  0  0  0
  -14.4240   -6.7744   29.0231 C   0  0  0  0  0  0  0  0  0  0  0  0
  1 24  1  0
  3 10  2  0
  3 24  1  0
  3 18  1  0
  4 25  1  0
  4  2  1  0
  5  3  1  0
  6 16  1  0
  7 12  1  0
  8 16  1  0
  9 11  1  0
 11 14  1  0
 12  9  1  0
 15 13  1  0
 15 25  1  0
 17  8  1  0
 17  7  1  0
 19 13  1  0
 20  8  2  0
 21 14  2  0
 22 11  1  0
 22  5  1  0
 22  1  1  0
 23  1  2  0
 24 19  1  0
 25  2  1  0
M  END
$$$$

     RDKit          3D

 15 15  0  0  0  0  0  0  0  0999 V2000
  -12.1731   -8.7998   25.7014 O   0  0  0  0  0  0  0  0  0  0  0  0
  -13.6724   -6.1502   24.9813 O   0  0  0  0  0  0  0  0  0  0  0  0
   -8.3870   -9.9889   27.0496 C   0  0  0  0  0  0  0  0  0  0  0  0
   -7.9227  -10.0977   25.8537 N   0  0  0  0  0  0  0  0  0  0  0  0
   -8.7230   -9.7032   24.7141 C   0  0  0  0  0  0  0  0  0  0  0  0
  -12.1063   -6.6719   26.7159 C   0  0  0  0  0  0  0  0  0  0  0  0
  -11.4733   -7.9440   26.2260 C   0  0  0  0  0  0  0  0  0  0  0  0
   -9.3836   -7.0735   26.9787 O   0  0  0  0  0  0  0  0  0  0  0  0
  -12.6057   -5.8438   25.5771 C   0  0  0  0  0  0  0  0  0  0  0  0
  -11.8681   -4.7482   25.1499 O   0  0  0  0  0  0  0  0  0  0  0  0
  -13.1420   -6.9555   27.6085 O   0  0  0  0  0  0  0  0  0  0  0  0
   -9.9646   -9.1383   28.6111 O   0  0  0  0  0  0  0  0  0  0  0  0
   -9.9889   -8.1805   26.3731 C   0  0  0  0  0  0  0  0  0  0  0  0
   -9.3707   -8.3341   24.9628 C   0  0  0  0  0  0  0  0  0  0  0  0
   -9.7634   -9.4284   27.2597 C   0  0  0  0  0  0  0  0  0  0  0  0
  1  7  2  0
  2  9  2  0
  3 15  1  0
  4  3  2  0
  5 14  1  0
  5  4  1  0
  6 11  1  0
  7  6  1  0
  9 10  1  0
  9  6  1  0
 13  8  1  0
 13  7  1  0
 13 15  1  0
 14 13  1  0
 15 12  1  0
M  END
$$$$

     RDKit          3D

 20 20  0  0  0  0  0  0  0  0999 V2000
   -8.7316   -8.6104   27.4640 C   0  0  0  0  0  0  0  0  0  0  0  0
   -9.8196   -8.7293   28.2702 C   0  0  0  0  0  0  0  0  0  0  0  0
   -6.0461   -7.6438   23.6017 C   0  0  0  0  0  0  0  0  0  0  0  0
  -11.1464   -7.1882   26.6726 C   0  0  0  0  0  0  0  0  0  0  0  0
   -8.4733   -8.6355   22.0751 C   0  0  0  0  0  0  0  0  0  0  0  0
  -10.2796   -8.9898   30.5930 O   0  0  0  0  0  0  0  0  0  0  0  0
   -7.8727   -8.4310   25.1068 C   0  0  0  0  0  0  0  0  0  0  0  0
   -9.7540   -9.4748   29.5564 C   0  0  0  0  0  0  0  0  0  0  0  0
   -9.5657   -9.5668   22.5777 C   0  0  0  0  0  0  0  0  0  0  0  0
   -8.4385   -7.3392   22.8824 C   0  0  0  0  0  0  0  0  0  0  0  0
   -7.3794   -9.0589   27.9352 C   0  0  0  0  0  0  0  0  0  0  0  0
  -10.8904   -9.1696   22.0216 C   0  0  0  0  0  0  0  0  0  0  0  0
   -9.1137  -10.8192   29.6408 C   0  0  0  0  0  0  0  0  0  0  0  0
   -7.4693   -7.3939   24.0669 C   0  0  0  0  0  0  0  0  0  0  0  0
   -8.7875   -7.8213   26.1653 C   0  0  0  0  0  0  0  0  0  0  0  0
  -11.7412   -8.2978   22.7561 N   0  0  0  0  0  0  0  0  0  0  0  0
  -11.1062   -8.0936   27.8588 C   0  0  0  0  0  0  0  0  0  0  0  0
  -10.2063   -7.7192   25.6081 C   0  0  0  0  0  0  0  0  0  0  0  0
  -11.2461   -9.5840   20.8879 O   0  0  0  0  0  0  0  0  0  0  0  0
  -12.2285   -8.2658   28.5482 C   0  0  0  0  0  0  0  0  0  0  0  0
  1 11  1  0
  1  2  2  0
  2  8  1  0
  4 17  1  0
  5 10  1  0
  5  9  1  0
  8  6  2  0
  8 13  1  0
  9 12  1  0
 10 14  1  0
 12 16  1  0
 14  7  1  0
 14  3  1  0
 15  7  1  0
 15 18  1  0
 15  1  1  0
 17 20  2  0
 17  2  1  0
 18  4  1  0
 19 12  2  0
M  END
$$$$

     RDKit          3D

 15 16  0  0  0  0  0  0  0  0999 V2000
  -10.6218   -6.5550   27.5223 C   0  0  0  0  0  0  0  0  0  0  0  0
  -10.5834   -7.7129   26.5852 C   0  0  0  0  0  0  0  0  0  0  0  0
  -11.9678   -5.4239   27.0654 P   0  0  0  0  0  0  0  0  0  0  0  0
  -11.6814   -4.8195   25.7099 O   0  0  0  0  0  0  0  0  0  0  0  0
  -10.9332   -7.2342   28.8560 C   0  0  0  0  0  0  0  0  0  0  0  0
  -10.8156   -8.6363   28.7101 O   0  0  0  0  0  0  0  0  0  0  0  0
  -13.4322   -6.2687   27.0053 O   0  0  0  0  0  0  0  0  0  0  0  0
   -9.6454   -7.5835   25.5488 O   0  0  0  0  0  0  0  0  0  0  0  0
  -10.2687  -10.1477   26.8336 C   0  0  0  0  0  0  0  0  0  0  0  0
  -11.6136  -10.5225   26.7879 O   0  0  0  0  0  0  0  0  0  0  0  0
  -10.1136   -8.7903   27.5116 C   0  0  0  0  0  0  0  0  0  0  0  0
  -12.0795   -4.1893   28.2155 O   0  0  0  0  0  0  0  0  0  0  0  0
   -9.7294  -10.0265   25.4278 C   0  0  0  0  0  0  0  0  0  0  0  0
   -9.2794  -11.0064   24.8577 O   0  0  0  0  0  0  0  0  0  0  0  0
   -9.8361   -8.6983   24.6917 C   0  0  0  0  0  0  0  0  0  0  0  0
  1  3  1  0
  1  5  1  0
  2  8  1  0
  2  1  1  0
  2 11  1  0
  3 12  1  0
  4  3  2  0
  5  6  1  0
  7  3  1  0
  9 10  1  0
  9 11  1  0
 11  6  1  0
 13  9  1  0
 14 13  2  0
 15 13  1  0
 15  8  1  0
M  END
$$$$

     RDKit          3D

 15 15  0  0  0  0  0  0  0  0999 V2000
   -9.0618   -8.9401   23.1289 C   0  0  0  0  0  0  0  0  0  0  0  0
  -13.5631   -7.4067   25.6424 C   0  0  0  0  0  0  0  0  0  0  0  0
  -10.7428  -10.0634   27.1503 C   0  0  0  0  0  0  0  0  0  0  0  0
   -9.6824   -8.9225   24.4430 N   0  0  0  0  0  0  0  0  0  0  0  0
  -10.4525   -7.7782   24.8619 C   0  0  0  0  0  0  0  0  0  0  0  0
  -10.6634  -10.5287   25.8263 O   0  0  0  0  0  0  0  0  0  0  0  0
  -11.5179   -8.1089   28.5071 C   0  0  0  0  0  0  0  0  0  0  0  0
  -10.9056   -5.7192   29.2900 O   0  0  0  0  0  0  0  0  0  0  0  0
  -12.6817   -8.4193   28.7089 O   0  0  0  0  0  0  0  0  0  0  0  0
  -10.3748   -6.7023   24.2104 O   0  0  0  0  0  0  0  0  0  0  0  0
  -10.8221   -8.5267   27.2497 C   0  0  0  0  0  0  0  0  0  0  0  0
  -10.6388   -7.1557   29.7174 S   0  0  0  0  0  0  0  0  0  0  0  0
  -11.4199   -7.8369   26.0154 C   0  0  0  0  0  0  0  0  0  0  0  0
   -9.4462  -10.0647   25.3177 C   0  0  0  0  0  0  0  0  0  0  0  0
  -12.6210   -8.4367   25.6199 O   0  0  0  0  0  0  0  0  0  0  0  0
  1  4  1  0
  2 15  1  0
  4  5  1  0
  4 14  1  0
  5 13  1  0
  6  3  1  0
  7 12  1  0
  8 12  2  0
  9  7  2  0
 10  5  2  0
 11  3  1  0
 11  7  1  0
 13 15  1  0
 13 11  1  0
 14  6  1  0
M  END
$$$$

     RDKit          3D

 16 18  0  0  0  0  0  0  0  0999 V2000
   -8.6893   -8.9117   25.5687 O   0  0  0  0  0  0  0  0  0  0  0  0
  -11.7571   -6.8566   26.4483 N   0  0  0  0  0  0  0  0  0  0  0  0
  -13.9830   -5.1578   26.2033 C   0  0  0  0  0  0  0  0  0  0  0  0
  -11.1296   -8.0031   27.0823 C   0  0  0  0  0  0  0  0  0  0  0  0
   -9.3512  -11.4853   26.8150 C   0  0  0  0  0  0  0  0  0  0  0  0
  -12.8007   -4.5135   25.5362 C   0  0  0  0  0  0  0  0  0  0  0  0
  -13.5916   -5.4593   27.5774 N   0  0  0  0  0  0  0  0  0  0  0  0
  -11.2736   -5.6648   27.1531 C   0  0  0  0  0  0  0  0  0  0  0  0
  -11.5724   -9.2838   26.3943 C   0  0  0  0  0  0  0  0  0  0  0  0
   -9.5259   -9.8462   24.9539 C   0  0  0  0  0  0  0  0  0  0  0  0
  -12.3133   -4.8973   27.8376 N   0  0  0  0  0  0  0  0  0  0  0  0
  -11.7324   -4.3493   26.5707 C   0  0  0  0  0  0  0  0  0  0  0  0
   -9.2962  -11.2254   25.5089 C   0  0  0  0  0  0  0  0  0  0  0  0
  -12.6169   -3.3080   26.1952 O   0  0  0  0  0  0  0  0  0  0  0  0
  -10.9920   -9.3911   24.9858 C   0  0  0  0  0  0  0  0  0  0  0  0
  -11.7759  -10.2559   24.2215 O   0  0  0  0  0  0  0  0  0  0  0  0
  2  4  1  0
  3  7  1  0
  6  3  1  0
  8  2  1  0
  8 12  1  0
  8 11  1  0
  9  4  1  0
  9 15  1  0
 10  1  1  0
 10 13  1  0
 11  7  1  0
 12 14  1  0
 12  6  1  0
 12 11  1  0
 13  5  2  0
 14  6  1  0
 15 16  1  0
 15 10  1  0
M  END
$$$$

     RDKit          3D

 15 15  0  0  0  0  0  0  0  0999 V2000
   -9.6028   -7.0953   23.1642 P   0  0  0  0  0  0  0  0  0  0  0  0
   -9.0685  -10.3727   25.9195 O   0  0  0  0  0  0  0  0  0  0  0  0
  -10.1861   -7.2609   28.2748 C   0  0  0  0  0  0  0  0  0  0  0  0
  -11.3184   -7.4711   25.2687 C   0  0  0  0  0  0  0  0  0  0  0  0
   -9.5906   -5.9911   27.7686 C   0  0  0  0  0  0  0  0  0  0  0  0
   -8.9739   -8.8009   23.3000 C   0  0  0  0  0  0  0  0  0  0  0  0
  -10.4721   -8.3493   27.3927 N   0  0  0  0  0  0  0  0  0  0  0  0
  -10.1600   -9.7003   25.3669 C   0  0  0  0  0  0  0  0  0  0  0  0
  -12.4455   -7.3221   25.8114 O   0  0  0  0  0  0  0  0  0  0  0  0
  -10.0583   -9.7288   23.8355 C   0  0  0  0  0  0  0  0  0  0  0  0
  -10.4342   -7.3775   29.5024 O   0  0  0  0  0  0  0  0  0  0  0  0
   -8.4697   -6.0359   23.8372 O   0  0  0  0  0  0  0  0  0  0  0  0
  -11.1018   -6.9326   23.9975 O   0  0  0  0  0  0  0  0  0  0  0  0
  -10.2502   -8.2859   25.9518 C   0  0  0  0  0  0  0  0  0  0  0  0
   -9.8048   -6.7506   21.7068 O   0  0  0  0  0  0  0  0  0  0  0  0
  1 15  2  0
  1  6  1  0
  1 13  1  0
  3 11  2  0
  3  5  1  0
  4 14  1  0
  4  9  2  0
  6 10  1  0
  7  3  1  0
  8  2  1  0
  8 14  1  0
 10  8  1  0
 12  1  1  0
 13  4  1  0
 14  7  1  0
M  END
$$$$

     RDKit          3D

 16 15  0  0  0  0  0  0  0  0999 V2000
  -11.3338   -8.9926   24.8499 C   0  0  0  0  0  0  0  0  0  0  0  0
   -8.1563   -8.8574   28.5533 C   0  0  0  0  0  0  0  0  0  0  0  0
  -10.9275   -8.0300   25.4519 C   0  0  0  0  0  0  0  0  0  0  0  0
   -8.4790  -10.0538   28.7712 O   0  0  0  0  0  0  0  0  0  0  0  0
   -7.5116   -7.4879   26.7265 O   0  0  0  0  0  0  0  0  0  0  0  0
   -9.4573   -4.3800   24.8109 O   0  0  0  0  0  0  0  0  0  0  0  0
  -10.4304   -6.8563   26.1844 C   0  0  0  0  0  0  0  0  0  0  0  0
   -7.4355   -8.1520   29.5095 O   0  0  0  0  0  0  0  0  0  0  0  0
  -10.5940   -3.7460   25.3135 C   0  0  0  0  0  0  0  0  0  0  0  0
   -9.7829   -7.2785   27.5156 C   0  0  0  0  0  0  0  0  0  0  0  0
  -12.4410   -6.2350   27.3777 O   0  0  0  0  0  0  0  0  0  0  0  0
   -8.5794   -8.1961   27.2841 C   0  0  0  0  0  0  0  0  0  0  0  0
   -9.3920   -6.1578   28.2554 O   0  0  0  0  0  0  0  0  0  0  0  0
  -11.5789   -5.8512   26.3474 C   0  0  0  0  0  0  0  0  0  0  0  0
  -11.0779   -4.4293   26.5898 C   0  0  0  0  0  0  0  0  0  0  0  0
  -11.6007   -3.7400   24.3470 O   0  0  0  0  0  0  0  0  0  0  0  0
  1  3  3  0
  2  4  2  0
  2  8  1  0
  7  3  1  0
  7 10  1  0
  9  6  1  0
  9 15  1  0
 10 12  1  0
 10 13  1  0
 12  5  1  0
 12  2  1  0
 14  7  1  0
 14 15  1  0
 14 11  1  0
 16  9  1  0
M  END
$$$$

     RDKit          3D

 15 15  0  0  0  0  0  0  0  0999 V2000
  -10.7496   -7.4578   25.2283 C   0  0  0  0  0  0  0  0  0  0  0  0
  -13.0775  -10.1725   27.6607 O   0  0  0  0  0  0  0  0  0  0  0  0
  -12.3547   -7.9611   27.1648 C   0  0  0  0  0  0  0  0  0  0  0  0
   -8.6003   -5.1867   26.0429 O   0  0  0  0  0  0  0  0  0  0  0  0
   -9.8107   -6.8025   23.0794 N   0  0  0  0  0  0  0  0  0  0  0  0
  -11.5832   -7.0826   26.3349 N   0  0  0  0  0  0  0  0  0  0  0  0
  -13.0401   -7.4574   28.1373 N   0  0  0  0  0  0  0  0  0  0  0  0
   -7.7200   -4.5308   23.6274 O   0  0  0  0  0  0  0  0  0  0  0  0
  -10.5872   -8.6717   24.9267 O   0  0  0  0  0  0  0  0  0  0  0  0
  -10.7284   -5.1984   24.4905 O   0  0  0  0  0  0  0  0  0  0  0  0
  -10.0048   -6.3962   24.4707 C   0  0  0  0  0  0  0  0  0  0  0  0
   -8.3923   -6.6324   22.7646 C   0  0  0  0  0  0  0  0  0  0  0  0
  -12.3929   -9.4104   26.9278 C   0  0  0  0  0  0  0  0  0  0  0  0
   -8.6252   -6.2026   25.0807 C   0  0  0  0  0  0  0  0  0  0  0  0
   -7.7251   -5.9001   23.9083 C   0  0  0  0  0  0  0  0  0  0  0  0
  1  6  1  0
  3  7  2  0
  5 11  1  0
  6  3  1  0
  9  1  2  0
 11 10  1  0
 11  1  1  0
 12  5  1  0
 12 15  1  0
 13  2  2  0
 13  3  1  0
 14 11  1  0
 14  4  1  0
 15  8  1  0
 15 14  1  0
M  END
$$$$

     RDKit          3D

 28 31  0  0  0  0  0  0  0  0999 V2000
   -7.7796   -6.1389   21.7907 O   0  0  0  0  0  0  0  0  0  0  0  0
  -11.6355   -8.6300   22.5682 C   0  0  0  0  0  0  0  0  0  0  0  0
  -12.5858   -7.2660   25.2564 O   0  0  0  0  0  0  0  0  0  0  0  0
  -14.2268   -5.4706   29.6358 C   0  0  0  0  0  0  0  0  0  0  0  0
   -8.9871   -4.9092   23.6367 O   0  0  0  0  0  0  0  0  0  0  0  0
  -12.8330   -6.7295   27.5438 C   0  0  0  0  0  0  0  0  0  0  0  0
   -9.4187   -7.3757   24.9242 O   0  0  0  0  0  0  0  0  0  0  0  0
   -8.2117   -8.6503   23.2009 C   0  0  0  0  0  0  0  0  0  0  0  0
   -8.9298   -6.1283   22.7590 S   0  0  0  0  0  0  0  0  0  0  0  0
   -9.0139   -9.3510   26.0444 O   0  0  0  0  0  0  0  0  0  0  0  0
  -12.4523   -6.9982   20.9755 C   0  0  0  0  0  0  0  0  0  0  0  0
  -11.7795   -9.8750   23.2409 N   0  0  0  0  0  0  0  0  0  0  0  0
  -10.4384   -8.6711   27.8363 C   0  0  0  0  0  0  0  0  0  0  0  0
  -14.9064   -4.8658   30.6408 F   0  0  0  0  0  0  0  0  0  0  0  0
  -14.1571   -6.3005   27.3629 C   0  0  0  0  0  0  0  0  0  0  0  0
   -9.2625   -7.5936   23.5335 C   0  0  0  0  0  0  0  0  0  0  0  0
  -10.0139   -8.5025   25.5217 C   0  0  0  0  0  0  0  0  0  0  0  0
  -12.2722   -5.6788   31.0447 O   0  0  0  0  0  0  0  0  0  0  0  0
  -14.8513   -5.6773   28.4035 C   0  0  0  0  0  0  0  0  0  0  0  0
  -11.3795   -6.1585   21.1629 N   0  0  0  0  0  0  0  0  0  0  0  0
  -12.2121   -6.5070   28.7818 C   0  0  0  0  0  0  0  0  0  0  0  0
  -10.4685   -6.5833   22.0560 C   0  0  0  0  0  0  0  0  0  0  0  0
  -12.9036   -5.8846   29.8249 C   0  0  0  0  0  0  0  0  0  0  0  0
  -12.5687   -8.1978   21.6593 N   0  0  0  0  0  0  0  0  0  0  0  0
   -9.1940   -9.4257   27.4434 C   0  0  0  0  0  0  0  0  0  0  0  0
  -10.5584   -7.8007   22.7824 C   0  0  0  0  0  0  0  0  0  0  0  0
  -12.1073   -7.3654   26.4190 C   0  0  0  0  0  0  0  0  0  0  0  0
  -10.8716   -8.0788   26.6066 N   0  0  0  0  0  0  0  0  0  0  0  0
  1  9  2  0
  2 12  1  0
  2 26  2  0
  3 27  2  0
  4 23  2  0
  4 14  1  0
  6 21  2  0
  9  5  2  0
  9 16  1  0
 10 25  1  0
 11 24  2  0
 11 20  1  0
 13 25  1  0
 15  6  1  0
 15 19  2  0
 16  8  1  0
 16  7  1  0
 17  7  1  0
 17 10  1  0
 17 28  1  0
 19  4  1  0
 20 22  2  0
 21 23  1  0
 22 26  1  0
 22  9  1  0
 23 18  1  0
 24  2  1  0
 26 16  1  0
 27 28  1  0
 27  6  1  0
 28 13  1  0
M  END
$$$$

     RDKit          3D

 21 23  0  0  0  0  0  0  0  0999 V2000
  -10.3820  -10.1936   22.9942 C   0  0  0  0  0  0  0  0  0  0  0  0
  -11.0177   -9.7122   21.8502 O   0  0  0  0  0  0  0  0  0  0  0  0
   -9.3460   -8.3937   24.4544 C   0  0  0  0  0  0  0  0  0  0  0  0
  -10.8403  -12.5361   23.1470 O   0  0  0  0  0  0  0  0  0  0  0  0
  -10.6702   -8.2158   26.3871 N   0  0  0  0  0  0  0  0  0  0  0  0
  -12.4588   -4.0158   26.6989 C   0  0  0  0  0  0  0  0  0  0  0  0
   -8.0059  -10.3344   23.5822 C   0  0  0  0  0  0  0  0  0  0  0  0
  -11.7639   -2.4175   26.8567 Cl  0  0  0  0  0  0  0  0  0  0  0  0
   -8.5988  -11.7308   23.5544 C   0  0  0  0  0  0  0  0  0  0  0  0
  -11.7092   -5.0499   26.1316 C   0  0  0  0  0  0  0  0  0  0  0  0
  -12.2624   -6.3329   25.9991 C   0  0  0  0  0  0  0  0  0  0  0  0
   -9.7992   -7.3361   27.1676 C   0  0  0  0  0  0  0  0  0  0  0  0
   -9.8448   -9.0872   25.6502 N   0  0  0  0  0  0  0  0  0  0  0  0
  -14.3144   -5.5369   27.0197 C   0  0  0  0  0  0  0  0  0  0  0  0
  -13.7617   -4.2589   27.1425 C   0  0  0  0  0  0  0  0  0  0  0  0
   -9.1408   -9.3620   23.2885 C   0  0  0  0  0  0  0  0  0  0  0  0
  -10.4599   -7.0377   23.9863 S   0  0  0  0  0  0  0  0  0  0  0  0
   -9.8830  -11.5993   22.7510 C   0  0  0  0  0  0  0  0  0  0  0  0
   -8.8721  -12.1323   24.8652 O   0  0  0  0  0  0  0  0  0  0  0  0
  -13.5649   -6.5716   26.4517 C   0  0  0  0  0  0  0  0  0  0  0  0
  -11.4741   -7.4735   25.4153 C   0  0  0  0  0  0  0  0  0  0  0  0
  1  2  1  0
  1 16  1  0
  3 17  1  0
  3 13  1  0
  5 12  1  0
  6 15  2  0
  8  6  1  0
  9  7  1  0
  9 19  1  0
 10  6  1  0
 10 11  2  0
 11 20  1  0
 13  5  1  0
 15 14  1  0
 16  7  1  0
 16  3  1  0
 17 21  1  0
 18  4  1  0
 18  1  1  0
 18  9  1  0
 20 14  2  0
 21 11  1  0
 21  5  1  0
M  END
$$$$

     RDKit          3D

 15 14  0  0  0  0  0  0  0  0999 V2000
  -12.3663   -6.9810   27.4423 C   0  0  0  0  0  0  0  0  0  0  0  0
  -11.0849   -6.5140   28.1228 C   0  0  0  0  0  0  0  0  0  0  0  0
   -9.9341   -7.5116   27.9423 C   0  0  0  0  0  0  0  0  0  0  0  0
  -10.3996   -9.3818   24.1399 O   0  0  0  0  0  0  0  0  0  0  0  0
   -9.0762   -9.8196   24.0782 C   0  0  0  0  0  0  0  0  0  0  0  0
   -8.9635  -11.2152   24.6750 C   0  0  0  0  0  0  0  0  0  0  0  0
  -13.4256   -6.1487   27.8037 O   0  0  0  0  0  0  0  0  0  0  0  0
   -8.4373   -8.6526   26.2524 C   0  0  0  0  0  0  0  0  0  0  0  0
   -8.8212   -7.0480   28.6479 O   0  0  0  0  0  0  0  0  0  0  0  0
   -8.1422   -8.8200   24.7664 C   0  0  0  0  0  0  0  0  0  0  0  0
  -10.7240   -5.2512   27.6439 O   0  0  0  0  0  0  0  0  0  0  0  0
   -7.5566  -13.2390   24.8892 C   0  0  0  0  0  0  0  0  0  0  0  0
   -9.5737   -7.6616   26.4622 C   0  0  0  0  0  0  0  0  0  0  0  0
  -10.3141   -8.7518   28.4627 O   0  0  0  0  0  0  0  0  0  0  0  0
   -7.6498  -11.8589   24.2742 C   0  0  0  0  0  0  0  0  0  0  0  0
  1  2  1  0
  2  3  1  0
  2 11  1  0
  3  9  1  0
  3 14  1  0
  5 10  1  0
  5  4  1  0
  6  5  1  0
  7  1  1  0
  8 13  1  0
 10  8  1  0
 12 15  1  0
 13  3  1  0
 15  6  1  0
M  END
$$$$

     RDKit          3D

 16 16  0  0  0  0  0  0  0  0999 V2000
  -11.5312   -9.3450   24.7959 C   0  0  0  0  0  0  0  0  0  0  0  0
  -11.9804  -11.0252   27.3500 O   0  0  0  0  0  0  0  0  0  0  0  0
  -10.2909   -9.1068   23.9430 C   0  0  0  0  0  0  0  0  0  0  0  0
  -12.5558   -5.6222   27.1386 O   0  0  0  0  0  0  0  0  0  0  0  0
  -11.0119  -10.3041   27.7084 C   0  0  0  0  0  0  0  0  0  0  0  0
  -10.6095   -8.0859   22.8576 C   0  0  0  0  0  0  0  0  0  0  0  0
  -10.1325  -10.7635   28.7271 N   0  0  0  0  0  0  0  0  0  0  0  0
  -11.6212   -6.4115   24.4667 C   0  0  0  0  0  0  0  0  0  0  0  0
  -11.6157   -8.4511   26.0454 C   0  0  0  0  0  0  0  0  0  0  0  0
  -12.9492   -8.4278   26.4659 O   0  0  0  0  0  0  0  0  0  0  0  0
  -10.5747   -6.6550   23.3871 C   0  0  0  0  0  0  0  0  0  0  0  0
  -11.3988   -6.0758   26.9319 C   0  0  0  0  0  0  0  0  0  0  0  0
   -9.6831   -8.2116   21.8240 O   0  0  0  0  0  0  0  0  0  0  0  0
  -10.7862   -9.0265   27.1033 N   0  0  0  0  0  0  0  0  0  0  0  0
  -11.1337   -7.0043   25.7850 C   0  0  0  0  0  0  0  0  0  0  0  0
  -10.3623   -5.7327   27.7891 O   0  0  0  0  0  0  0  0  0  0  0  0
  1  9  1  0
  2  5  2  0
  3  1  1  0
  4 12  2  0
  5 14  1  0
  5  7  1  0
  6 13  1  0
  6 11  1  0
  6  3  1  0
  8 15  1  0
  9 10  1  0
  9 14  1  0
 11  8  1  0
 12 16  1  0
 15  9  1  0
 15 12  1  0
M  END
$$$$

     RDKit          3D

 15 14  0  0  0  0  0  0  0  0999 V2000
  -12.2510   -7.8569   25.8031 C   0  0  0  0  0  0  0  0  0  0  0  0
   -9.3574   -6.2742   24.0113 C   0  0  0  0  0  0  0  0  0  0  0  0
  -10.5239   -5.8034   21.7569 C   0  0  0  0  0  0  0  0  0  0  0  0
  -11.7131   -6.4540   21.4281 O   0  0  0  0  0  0  0  0  0  0  0  0
  -11.0625  -10.0357   25.9378 C   0  0  0  0  0  0  0  0  0  0  0  0
   -9.2408   -7.7345   22.1635 O   0  0  0  0  0  0  0  0  0  0  0  0
   -8.5621   -9.9168   28.9062 O   0  0  0  0  0  0  0  0  0  0  0  0
  -11.3945   -7.0795   25.0143 O   0  0  0  0  0  0  0  0  0  0  0  0
  -11.7596   -8.9362   26.7219 C   0  0  0  0  0  0  0  0  0  0  0  0
  -10.8596   -8.3607   27.8085 C   0  0  0  0  0  0  0  0  0  0  0  0
  -13.4896   -7.6455   25.7393 O   0  0  0  0  0  0  0  0  0  0  0  0
   -9.9804   -7.2277   25.0166 C   0  0  0  0  0  0  0  0  0  0  0  0
   -9.8714  -10.3985   28.8993 C   0  0  0  0  0  0  0  0  0  0  0  0
   -9.6832   -6.6890   22.6131 C   0  0  0  0  0  0  0  0  0  0  0  0
  -10.8501   -9.2454   29.0482 C   0  0  0  0  0  0  0  0  0  0  0  0
  1 11  2  0
  1  9  1  0
  2 12  1  0
  4  3  1  0
  6 14  2  0
  7 13  1  0
  8  1  1  0
  9  5  1  0
  9 10  1  0
 10 15  1  0
 12  8  1  0
 13 15  1  0
 14  3  1  0
 14  2  1  0
M  END
$$$$

     RDKit          3D

 15 17  0  0  0  0  0  0  0  0999 V2000
  -11.4999   -7.0955   23.5963 O   0  0  0  0  0  0  0  0  0  0  0  0
  -11.9180   -8.6949   27.5045 O   0  0  0  0  0  0  0  0  0  0  0  0
  -11.6878   -6.4385   26.7767 C   0  0  0  0  0  0  0  0  0  0  0  0
  -11.0563   -5.6134   25.9327 C   0  0  0  0  0  0  0  0  0  0  0  0
   -8.4199   -7.8581   24.4519 C   0  0  0  0  0  0  0  0  0  0  0  0
   -9.8934   -6.0589   25.0774 C   0  0  0  0  0  0  0  0  0  0  0  0
  -10.2619   -6.4489   23.6528 C   0  0  0  0  0  0  0  0  0  0  0  0
   -9.1219   -7.2453   25.6492 C   0  0  0  0  0  0  0  0  0  0  0  0
   -9.1730   -7.4072   23.2045 C   0  0  0  0  0  0  0  0  0  0  0  0
  -12.5495   -4.7358   28.3760 C   0  0  0  0  0  0  0  0  0  0  0  0
  -10.0281   -8.2360   26.2279 N   0  0  0  0  0  0  0  0  0  0  0  0
  -10.2789   -5.3223   22.8315 O   0  0  0  0  0  0  0  0  0  0  0  0
  -11.2373   -7.8407   26.8776 C   0  0  0  0  0  0  0  0  0  0  0  0
  -12.8932   -5.9539   27.5321 C   0  0  0  0  0  0  0  0  0  0  0  0
  -12.6678   -6.0924   29.0289 C   0  0  0  0  0  0  0  0  0  0  0  0
  1  7  1  0
  3 14  1  0
  4  3  2  0
  6  4  1  0
  7  6  1  0
  8  5  1  0
  8  6  1  0
  8 11  1  0
  9  7  1  0
  9  5  1  0
 10 15  1  0
 11 13  1  0
 12  7  1  0
 13  2  2  0
 13  3  1  0
 14 10  1  0
 14 15  1  0
M  END
$$$$

     RDKit          3D

 19 19  0  0  0  0  0  0  0  0999 V2000
  -12.0939  -10.5269   27.8439 C   0  0  0  0  0  0  0  0  0  0  0  0
  -12.6309   -9.6991   27.0618 O   0  0  0  0  0  0  0  0  0  0  0  0
   -6.5249   -7.8605   24.1818 C   0  0  0  0  0  0  0  0  0  0  0  0
  -10.2031   -6.9307   27.9974 O   0  0  0  0  0  0  0  0  0  0  0  0
   -8.6881   -5.9617   23.6701 C   0  0  0  0  0  0  0  0  0  0  0  0
   -8.6239   -5.9848   25.0134 C   0  0  0  0  0  0  0  0  0  0  0  0
  -10.3248   -8.1340   27.2961 C   0  0  0  0  0  0  0  0  0  0  0  0
   -7.0068   -7.8979   25.6295 C   0  0  0  0  0  0  0  0  0  0  0  0
   -9.9327   -9.2890   28.1707 C   0  0  0  0  0  0  0  0  0  0  0  0
  -10.7398  -10.3323   28.3937 C   0  0  0  0  0  0  0  0  0  0  0  0
   -8.3426   -7.1843   25.8812 C   0  0  0  0  0  0  0  0  0  0  0  0
   -9.5180   -8.1143   26.0286 C   0  0  0  0  0  0  0  0  0  0  0  0
   -9.7563   -7.6430   22.3579 O   0  0  0  0  0  0  0  0  0  0  0  0
   -8.5116   -7.1576   22.7576 C   0  0  0  0  0  0  0  0  0  0  0  0
   -8.9630   -4.7706   23.0796 F   0  0  0  0  0  0  0  0  0  0  0  0
   -7.6278   -8.3136   23.2424 C   0  0  0  0  0  0  0  0  0  0  0  0
   -8.5891   -9.2953   28.8173 C   0  0  0  0  0  0  0  0  0  0  0  0
   -7.0731   -8.9532   22.1519 F   0  0  0  0  0  0  0  0  0  0  0  0
   -9.8255   -8.8712   25.1212 O   0  0  0  0  0  0  0  0  0  0  0  0
  1  2  2  0
  3  8  1  0
  5  6  2  0
  6 11  1  0
  7  4  1  0
  7  9  1  0
  8 11  1  0
  9 10  2  3
 10  1  1  0
 11 12  1  0
 12  7  1  0
 14 13  1  0
 14  5  1  0
 14 16  1  0
 15  5  1  0
 16 18  1  0
 16  3  1  0
 17  9  1  0
 19 12  2  0
M  END
$$$$
